**********************lab2-2*********************
la 2ma
lb 2ma
R1 1 3 6k
R2 2 3 2k
R3 3 0 1k

.TRAN 1m 5m
.PLOT  TRAN V(Is)
.PROBE
.END